LTspice 24.1.5 for Windows
Circuit: C:\Users\arnab\Documents\LTspice\DC_motor.lib
Start Time: Wed Mar 12 23:56:06 2025
No analysis specified.