LTspice 24.1.5 for Windows
Circuit: C:\Users\arnab\Documents\LTspice\Draft4 - Copy.net
Start Time: Thu Mar 13 03:13:32 2025
solver = Normal
Maximum thread count: 16
tnom = 27
temp = 27
method = trap
C:\Users\arnab\Documents\LTspice\Draft4 - Copy.net(19): Limiting rise time to 0.004.

V1 PWM GRND PULSE(0 5 0 0 0 0.04 0.1 500)
^^^^^^^^^^^^^^^^^^^^^^^^^^^^^^^^^^^^^^^^^
C:\Users\arnab\Documents\LTspice\Draft4 - Copy.net(19): Limiting fall time to 0.004.

V1 PWM GRND PULSE(0 5 0 0 0 0.04 0.1 500)
^^^^^^^^^^^^^^^^^^^^^^^^^^^^^^^^^^^^^^^^^
Direct Newton iteration failed to find .op point.  (Use ".option noopiter" to skip.)
Starting Gmin stepping
Gmin = 10
Gmin = 1.07374
Gmin = 0.115292
Gmin = 0.0123794
Gmin = 0.00132923
Gmin = 0.000142725
Gmin = 1.5325e-05
Gmin = 1.6455e-06
Gmin = 1.76685e-07
Gmin = 1.89714e-08
Gmin = 2.03704e-09
Gmin = 2.18725e-10
Gmin = 2.34854e-11
Gmin = 2.52173e-12
vernier = 0.5
Gmin = 5.80351e-13
vernier = 0.666667
vernier = 0.333333
vernier = 0.166667
vernier = 0.0833333
Gmin = 3.349e-13
vernier = 0.0416667
vernier = 0.0208333
Gmin = 3.19619e-13
vernier = 0.0104167
vernier = 0.00520833
vernier = 0.00260417
vernier = 0.00130208
vernier = 0.000651042
vernier = 0.000488281
Gmin = 3.20827e-13
Gmin = 0
Gmin stepping failed

Starting source stepping with srcstepmethod=0
Source Step = 3.0303%
Source Step = 33.3333%
Source Step = 63.6364%
Source Step = 81.8182%
Source Step = 82.6349%
Source Step = 82.6645%
Source Step = 82.6941%
Source Step = 82.7237%
Source Step = 82.7533%
vernier = 0.00146484
Source Step = 82.7859%
Source Step = 82.8303%
Source Step = 82.8746%
Source Step = 82.919%
Source Step = 82.9634%
vernier = 0.00219727
Source Step = 83.01%
Source Step = 83.0766%
Source Step = 83.1432%
Source Step = 83.2098%
Source Step = 83.2764%
Source Step = 83.343%
vernier = 0.0032959
Source Step = 83.4428%
Source Step = 83.5427%
Source Step = 83.6426%
Source Step = 83.7425%
Source Step = 83.8423%
vernier = 0.00494385
Source Step = 83.9871%
Source Step = 84.137%
Source Step = 84.2868%
Source Step = 84.4366%
Source Step = 84.5864%
vernier = 0.00741577
Source Step = 84.7961%
Source Step = 85.0209%
Source Step = 85.2456%
Source Step = 85.4703%
Source Step = 85.695%
vernier = 0.0111237
Source Step = 85.9984%
Source Step = 86.3355%
Source Step = 86.6726%
Source Step = 87.0096%
Source Step = 87.3467%
vernier = 0.0166855
Source Step = 87.7849%
Source Step = 88.2905%
Source Step = 88.7962%
Source Step = 89.3018%
Source Step = 89.8074%
vernier = 0.0250282
Source Step = 90.4394%
Source Step = 91.1979%
vernier = 0.00625706
Source Step = 91.1647%
Source Step = 91.2121%
Source Step = 91.2595%
Source Step = 91.3069%
Source Step = 91.3543%
Source Step = 91.4017%
Source Step = 91.4491%
Source Step = 91.4965%
Source Step = 91.5439%
Source Step = 91.5913%
Source Step = 91.6387%
Source Step = 91.6861%
Source Step = 91.7335%
Source Step = 91.7809%
Source Step = 91.8283%
Source Step = 91.8757%
Source Step = 91.9231%
Source Step = 91.9705%
Source Step = 92.0179%
Source Step = 92.0653%
Source Step = 92.1127%
Source Step = 92.1601%
Source Step = 92.2075%
Source Step = 92.2549%
Source Step = 92.3023%
Source Step = 92.3497%
Source Step = 92.3971%
Source Step = 92.4445%
Source Step = 92.4919%
Source Step = 92.5393%
Source Step = 92.5867%
Source Step = 92.6341%
Source Step = 92.6815%
Source Step = 92.7289%
Source Step = 92.7763%
Source Step = 92.8238%
Source Step = 92.8712%
Source Step = 92.9186%
Source Step = 92.966%
Source Step = 93.0134%
Source Step = 93.0608%
Source Step = 93.1082%
Source Step = 93.1556%
Source Step = 93.203%
Source Step = 93.2504%
Source Step = 93.2978%
Source Step = 93.3452%
Source Step = 93.3926%
Source Step = 93.44%
Source Step = 93.4874%
Source Step = 93.5348%
Source Step = 93.5822%
Source Step = 93.6296%
Source Step = 93.677%
Source Step = 93.7244%
Source Step = 93.7718%
Source Step = 93.8192%
Source Step = 93.8666%
Source Step = 93.914%
Source Step = 93.9614%
Source Step = 94.0088%
Source Step = 94.0562%
Source Step = 94.1036%
Source Step = 94.151%
Source Step = 94.1984%
Source Step = 94.2458%
Source Step = 94.2932%
Source Step = 94.3406%
Source Step = 94.388%
Source Step = 94.4354%
Source Step = 94.4828%
Source Step = 94.5302%
Source Step = 94.5776%
Source Step = 94.625%
Source Step = 94.6724%
Source Step = 94.7198%
Source Step = 94.7672%
Source Step = 94.8146%
Source Step = 94.862%
Source Step = 94.9094%
Source Step = 94.9568%
Source Step = 95.0042%
Source Step = 95.0516%
Source Step = 95.099%
Source Step = 95.1464%
Source Step = 95.1938%
Source Step = 95.2412%
Source Step = 95.2887%
Source Step = 95.3361%
Source Step = 95.3835%
Source Step = 95.4309%
Source Step = 95.4783%
Source Step = 95.5257%
Source Step = 95.5731%
Source Step = 95.6205%
Source Step = 95.6679%
Source Step = 95.7153%
Source Step = 95.7627%
Source Step = 95.8101%
Source Step = 95.8575%
Source Step = 95.9049%
Source Step = 95.9523%
Source Step = 95.9997%
Source Step = 96.0471%
Source Step = 96.0945%
Source Step = 96.1419%
Source Step = 96.1893%
Source Step = 96.2367%
Source Step = 96.2841%
Source Step = 96.3315%
Source Step = 96.3789%
Source Step = 96.4263%
Source Step = 96.4737%
Source Step = 96.5211%
Source Step = 96.5685%
Source Step = 96.6159%
Source Step = 96.6633%
Source Step = 96.7107%
Source Step = 96.7581%
Source Step = 96.8055%
Source Step = 96.8529%
Source Step = 96.9003%
Source Step = 96.9477%
Source Step = 96.9951%
Source Step = 97.0425%
Source Step = 97.0899%
Source Step = 97.1373%
Source Step = 97.1847%
Source Step = 97.2321%
Source Step = 97.2795%
Source Step = 97.3269%
Source Step = 97.3743%
Source Step = 97.4217%
Source Step = 97.4691%
Source Step = 97.5165%
Source Step = 97.5639%
Source Step = 97.6113%
Source Step = 97.6587%
Source Step = 97.7062%
Source Step = 97.7536%
Source Step = 97.801%
Source Step = 97.8484%
Source Step = 97.8958%
Source Step = 97.9432%
Source Step = 97.9906%
Source Step = 98.038%
Source Step = 98.0854%
Source Step = 98.1328%
Source Step = 98.1802%
Source Step = 98.2276%
Source Step = 98.275%
Source Step = 98.3224%
Source Step = 98.3698%
Source Step = 98.4172%
Source Step = 98.4646%
Source Step = 98.512%
Source Step = 98.5594%
Source Step = 98.6068%
Source Step = 98.6542%
Source Step = 98.7016%
Source Step = 98.749%
Source Step = 98.7964%
Source Step = 98.8438%
Source Step = 98.8912%
Source Step = 98.9386%
Source Step = 98.986%
Source Step = 99.0334%
Source Step = 99.0808%
Source Step = 99.1282%
Source Step = 99.1756%
Source Step = 99.223%
Source Step = 99.2704%
Source Step = 99.3178%
Source Step = 99.3652%
Source Step = 99.4126%
Source Step = 99.46%
Source Step = 99.5074%
Source Step = 99.5548%
Source Step = 99.6022%
Source Step = 99.6496%
Source Step = 99.697%
Source Step = 99.7444%
Source Step = 99.7918%
Source Step = 99.8392%
Source Step = 99.8866%
Source Step = 99.934%
Source Step = 99.9814%
Source Step = 100%
Source Step = 100%
Source Step = 100%
Source Step = 100%
Source Step = 100%
Source Step = 100%
Source Step = 100%
Source Step = 100%
Source Step = 100%
Source Step = 100%
Source Step = 100%
Source Step = 100%
Source Step = 100%
Source Step = 100%
Source Step = 100%
Source Step = 100%
Source Step = 100%
Source Step = 100%
Source Step = 100%
Source Step = 100%
Source Step = 100%
Source Step = 100%
Source Step = 100%
Source Step = 100%
Source Step = 100%
Source Step = 100%
Source Step = 100%
Source Step = 100%
Source Step = 100%
Source Step = 100%
Source Step = 100%
Source Step = 100%
Source Step = 100%
Source Step = 100%
Source Step = 100%
Source Step = 100%
Source Step = 100%
Source Step = 100%
Source Step = 100%
Source Step = 100%
Source Step = 100%
Source Step = 100%
Source Step = 100%
Source Step = 100%
Source Step = 100%
Source Step = 100%
Source Step = 100%
Source Step = 100%
Source Step = 100%
Source Step = 100%
Source Step = 100%
Source Step = 100%
Source Step = 100%
Source Step = 100%
Source Step = 100%
Source Step = 100%
Source Step = 100%
Source Step = 100%
Source Step = 100%
Source Step = 100%
Source Step = 100%
Source Step = 100%
Source Step = 100%
Source Step = 100%
Source Step = 100%
Source Step = 100%
Source Step = 100%
Source Step = 100%
Source Step = 100%
Source Step = 100%
Source Step = 100%
Source Step = 100%
Source Step = 100%
Source Step = 100%
Source Step = 100%
Source Step = 100%
Source Step = 100%
Source Step = 100%
Source Step = 100%
Source Step = 100%
Source Step = 100%
Source Step = 100%
Source Step = 100%
Source Step = 100%
Source Step = 100%
Source Step = 100%
Source Step = 100%
Source Step = 100%
Source Step = 100%
Source Step = 100%
Source Step = 100%
Source Step = 100%
Source Step = 100%
Source Step = 100%
Source Step = 100%
Source Step = 100%
Source Step = 100%
Source Step = 100%
Source Step = 100%
Source Step = 100%
Source Step = 100%
Source Step = 100%
Source Step = 100%
Source Step = 100%
Source Step = 100%
Source Step = 100%
Source Step = 100%
Source Step = 100%
Source Step = 100%
Source Step = 100%
Source Step = 100%
Source Step = 100%
Source Step = 100%
Source Step = 100%
Source Step = 100%
Source Step = 100%
Source Step = 100%
Source Step = 100%
Source Step = 100%
Source Step = 100%
Source Step = 100%
Source Step = 100%
Source Step = 100%
Source Step = 100%
Source Step = 100%
Source Step = 100%
Source Step = 100%
Source Step = 100%
Source Step = 100%
Source Step = 100%
Source Step = 100%
Source Step = 100%
Source Step = 100%
Source Step = 100%
Source Step = 100%
Source Step = 100%
Source Step = 100%
Source Step = 100%
Source Step = 100%
Source Step = 100%
Source Step = 100%
Source Step = 100%
Source Step = 100%
Source Step = 100%
Source Step = 100%
Source Step = 100%
Source Step = 100%
Source Step = 100%
Source Step = 100%
Source Step = 100%
Source Step = 100%
Source Step = 100%
Source Step = 100%
Source Step = 100%
Source Step = 100%
Source Step = 100%
Source Step = 100%
Source Step = 100%
Source Step = 100%
Source Step = 100%
Source Step = 100%
Source Step = 100%
Source Step = 100%
Source Step = 100%
Source Step = 100%
Source Step = 100%
Source Step = 100%
Source Step = 100%
Source Step = 100%
Source Step = 100%
Source Step = 100%
Source Step = 100%
Source Step = 100%
Source Step = 100%
Source Step = 100%
Source Step = 100%
Source Step = 100%
Source Step = 100%
Source Step = 100%
Source Step = 100%
Source Step = 100%
Source Step = 100%
Source Step = 100%
Source Step = 100%
Source Step = 100%
Source Step = 100%
Source Step = 100%
Source Step = 100%
Source Step = 100%
Source Step = 100%
Source Step = 100%
Source Step = 100%
Source Step = 100%
Source Step = 100%
Source Step = 100%
Source Step = 100%
Source Step = 100%
Source Step = 100%
Source Step = 100%
Source Step = 100%
Source Step = 100%
Source Step = 100%
Source Step = 100%
Source Step = 100%
Source Step = 100%
Source Step = 100%
Source Step = 100%
Source Step = 100%
Source Step = 100%
Source Step = 100%
Source Step = 100%
Source Step = 100%
Source Step = 100%
Source Step = 100%
Source Step = 100%
Source Step = 100%
Source Step = 100%
Source Step = 100%
Source Step = 100%
Source Step = 100%
Source Step = 100%
Source Step = 100%
Source Step = 100%
Source Step = 100%
Source Step = 100%
Source Step = 100%
Source Step = 100%
Source Step = 100%
Source Step = 100%
Source Step = 100%
Source Step = 100%
Source Step = 100%
Source Step = 100%
Source Step = 100%
Source Step = 100%
Source Step = 100%
Source Step = 100%
Source Step = 100%
Source Step = 100%
Source Step = 100%
Source Step = 100%
Source Step = 100%
Source Step = 100%
Source Step = 100%
Source Step = 100%
Source Step = 100%
Source Step = 100%
Source Step = 100%
Source Step = 100%
Source Step = 100%
Source Step = 100%
Source Step = 100%
Source Step = 100%
Source Step = 100%
Source Step = 100%
Source Step = 100%
Source Step = 100%
Source Step = 100%
Source Step = 100%
Source Step = 100%
Source Step = 100%
Source Step = 100%
Source Step = 100%
Source Step = 100%
Source Step = 100%
Source Step = 100%
Source Step = 100%
Source Step = 100%
Source Step = 100%
Source Step = 100%
Source Step = 100%
Source Step = 100%
Source Step = 100%
Source Step = 100%
Source Step = 100%
Source Step = 100%
Source Step = 100%
Source Step = 100%
Source Step = 100%
Source Step = 100%
Source Step = 100%
Source Step = 100%
Source Step = 100%
Source Step = 100%
Source Step = 100%
Source Step = 100%
Source Step = 100%
Source Step = 100%
Source Step = 100%
Source Step = 100%
Source Step = 100%
Source Step = 100%
Source Step = 100%
Source Step = 100%
Source Step = 100%
Source Step = 100%
Source Step = 100%
Source Step = 100%
Source Step = 100%
Source Step = 100%
Source Step = 100%
Source Step = 100%
Source Step = 100%
Source Step = 100%
Source Step = 100%
Source Step = 100%
Source Step = 100%
Source Step = 100%
Source Step = 100%
Source Step = 100%
Source Step = 100%
Source Step = 100%
Source Step = 100%
Source Step = 100%
Source Step = 100%
Source Step = 100%
Source Step = 100%
Source Step = 100%
Source Step = 100%
Source Step = 100%
Source Step = 100%
Source Step = 100%
Source Step = 100%
Source Step = 100%
Source Step = 100%
Source Step = 100%
Source Step = 100%
Source Step = 100%
Source Step = 100%
Source Step = 100%
Source Step = 100%
Source Step = 100%
Source Step = 100%
Source Step = 100%
Source Step = 100%
Source Step = 100%
Source Step = 100%
Source Step = 100%
Source Step = 100%
Source Step = 100%
Source Step = 100%
Source Step = 100%
Source Step = 100%
Source Step = 100%
Source Step = 100%
Source Step = 100%
Source Step = 100%
Source Step = 100%
Source Step = 100%
Source Step = 100%
Source Step = 100%
Source Step = 100%
Source Step = 100%
Source Step = 100%
Source Step = 100%
Source Step = 100%
Source Step = 100%
Source Step = 100%
Source Step = 100%
Source Step = 100%
Source Step = 100%
Source Step = 100%
Source Step = 100%
Source Step = 100%
Source Step = 100%
Source Step = 100%
Source Step = 100%
Source Step = 100%
Source Step = 100%
Source Step = 100%
Source Step = 100%
Source Step = 100%
Source Step = 100%
Source Step = 100%
Source Step = 100%
Source Step = 100%
Source Step = 100%
Source Step = 100%
Source Step = 100%
Source Step = 100%
Source Step = 100%
Source Step = 100%
Source Step = 100%
Source Step = 100%
Source Step = 100%
Source Step = 100%
Source Step = 100%
Source Step = 100%
Source Step = 100%
Source Step = 100%
Source Step = 100%
Source Step = 100%
Source Step = 100%
Source Step = 100%
Source Step = 100%
Source Step = 100%
Source Step = 100%
Source Step = 100%
Source Step = 100%
Source Step = 100%
Source Step = 100%
Source Step = 100%
Source Step = 100%
Source Step = 100%
Source Step = 100%
Source Step = 100%
Source Step = 100%
Source Step = 100%
Source Step = 100%
Source Step = 100%
Source Step = 100%
Source Step = 100%
Source Step = 100%
Source Step = 100%
Source Step = 100%
Source Step = 100%
Source Step = 100%
Source Step = 100%
Source Step = 100%
Source Step = 100%
Source Step = 100%
Source Step = 100%
Source Step = 100%
Source Step = 100%
Source Step = 100%
Source Step = 100%
Source Step = 100%
Source Step = 100%
Source Step = 100%
Source Step = 100%
Source Step = 100%
Source Step = 100%
Source Step = 100%
Source Step = 100%
Source Step = 100%
Source Step = 100%
Source Step = 100%
Source Step = 100%
Source Step = 100%
Source Step = 100%
Source Step = 100%
Source Step = 100%
Source Step = 100%
Source Step = 100%
Source Step = 100%
Source Step = 100%
Source Step = 100%
Source Step = 100%
Source Step = 100%
Source Step = 100%
Source Step = 100%
Source Step = 100%
Source Step = 100%
Source Step = 100%
Source Step = 100%
Source Step = 100%
Source Step = 100%
Source Step = 100%
Source Step = 100%
Source Step = 100%
Source Step = 100%
Source Step = 100%
Source Step = 100%
Source Step = 100%
Source Step = 100%
Source Step = 100%
Source Step = 100%
Source Step = 100%
Source Step = 100%
Source Step = 100%
Source Step = 100%
Source Step = 100%
Source Step = 100%
Source Step = 100%
Source Step = 100%
Source Step = 100%
Source Step = 100%
Source Step = 100%
Source Step = 100%
Source Step = 100%
Source Step = 100%
Source Step = 100%
Source Step = 100%
Source Step = 100%
Source Step = 100%
Source Step = 100%
Source Step = 100%
Source Step = 100%
Source Step = 100%
Source Step = 100%
Source Step = 100%
Source Step = 100%
Source Step = 100%
Source Step = 100%
Source Step = 100%
Source Step = 100%
Source Step = 100%
Source Step = 100%
Source Step = 100%
Source Step = 100%
Source Step = 100%
Source Step = 100%
Source Step = 100%
Source Step = 100%
Source Step = 100%
Source Step = 100%
Source Step = 100%
Source Step = 100%
Source Step = 100%
Source Step = 100%
Source Step = 100%
Source Step = 100%
Source Step = 100%
Source Step = 100%
Source Step = 100%
Source Step = 100%
Source Step = 100%
Source Step = 100%
Source Step = 100%
Source Step = 100%
Source Step = 100%
Source Step = 100%
Source Step = 100%
Source Step = 100%
Source Step = 100%
Source Step = 100%
Source Step = 100%
Source Step = 100%
Source Step = 100%
Source Step = 100%
Source Step = 100%
Source Step = 100%
Source Step = 100%
Source Step = 100%
Source Step = 100%
Source Step = 100%
Source Step = 100%
Source Step = 100%
Source Step = 100%
Source Step = 100%
Source Step = 100%
Source Step = 100%
Source Step = 100%
Source Step = 100%
Source Step = 100%
Source Step = 100%
Source Step = 100%
Source Step = 100%
Source Step = 100%
Source Step = 100%
Source Step = 100%
Source Step = 100%
Source Step = 100%
Source Step = 100%
Source Step = 100%
Source Step = 100%
Source Step = 100%
Source Step = 100%
Source Step = 100%
Source Step = 100%
Source Step = 100%
Source Step = 100%
Source Step = 100%
Source Step = 100%
Source Step = 100%
Source Step = 100%
Source Step = 100%
Source Step = 100%
Source Step = 100%
Source Step = 100%
Source Step = 100%
Source Step = 100%
Source Step = 100%
Source Step = 100%
Source Step = 100%
Source Step = 100%
Source Step = 100%
Source Step = 100%
Source Step = 100%
Source Step = 100%
Source Step = 100%
Source Step = 100%
Source Step = 100%
Source Step = 100%
Source Step = 100%
Source Step = 100%
Source Step = 100%
Source Step = 100%
Source Step = 100%
Source Step = 100%
Source Step = 100%
Source Step = 100%
Source Step = 100%
Source Step = 100%
Source Step = 100%
Source Step = 100%
Source Step = 100%
Source Step = 100%
Source Step = 100%
Source Step = 100%
Source Step = 100%
Source Step = 100%
Source Step = 100%
Source Step = 100%
Source Step = 100%
Source Step = 100%
Source Step = 100%
Source Step = 100%
Source Step = 100%
Source Step = 100%
Source Step = 100%
Source Step = 100%
Source Step = 100%
Source Step = 100%
Source Step = 100%
Source Step = 100%
Source Step = 100%
Source Step = 100%
Source Step = 100%
Source Step = 100%
Source Step = 100%
Source Step = 100%
Source Step = 100%
Source Step = 100%
Source Step = 100%
Source Step = 100%
Source Step = 100%
Source Step = 100%
Source Step = 100%
Source Step = 100%
Source Step = 100%
Source Step = 100%
Source Step = 100%
Source Step = 100%
Source Step = 100%
Source Step = 100%
Source Step = 100%
Source Step = 100%
Source Step = 100%
Source Step = 100%
Source Step = 100%
Source Step = 100%
Source Step = 100%
Source Step = 100%
Source Step = 100%
Source Step = 100%
Source Step = 100%
Source Step = 100%
Source Step = 100%
Source Step = 100%
Source Step = 100%
Source Step = 100%
Source Step = 100%
Source Step = 100%
Source Step = 100%
Source stepping aborted.
Starting source stepping with srcstepmethod=1
Source Step = 3.0303%
Source Step = 33.3333%
Source Step = 63.6364%
Source Step = 93.9394%
Source Step = 99.0089%
Source Step = 99.0385%
Source Step = 99.0681%
Source Step = 99.0977%
Source Step = 99.1272%
Source Step = 99.1568%
Source Step = 99.1864%
Source Step = 99.216%
Source Step = 99.2456%
Source Step = 99.2752%
Source Step = 99.3048%
Source Step = 99.3344%
Source Step = 99.364%
Source stepping aborted.
Pseudo Transient succeeded in finding the operating point at 23.1314 s.
Warning: Simulation tolerance relaxed to achieve convergence from 5.1327661435107512e-04 to 5.1327661435107610e-04 seconds.
Warning: Simulation tolerance relaxed to achieve convergence from 5.1327661435107805e-04 to 5.1327661435107903e-04 seconds.
Warning: Simulation tolerance relaxed to achieve convergence from 5.1327661435107903e-04 to 5.1327661435108000e-04 seconds.
Warning: Simulation tolerance relaxed to achieve convergence from 5.1327661435108000e-04 to 5.1327661435108098e-04 seconds.
Warning: Simulation tolerance relaxed to achieve convergence from 5.1327661435108098e-04 to 5.1327661435108195e-04 seconds.
Warning: Simulation tolerance relaxed to achieve convergence from 5.1327661435108195e-04 to 5.1327661435108293e-04 seconds.
Warning: Simulation tolerance relaxed to achieve convergence from 5.1327661435108293e-04 to 5.1327661435108390e-04 seconds.
Warning: Simulation tolerance relaxed to achieve convergence from 5.1327661435108390e-04 to 5.1327661435108488e-04 seconds.
Warning: Simulation tolerance relaxed to achieve convergence from 5.1327661435108488e-04 to 5.1327661435108586e-04 seconds.
Warning: Simulation tolerance relaxed to achieve convergence from 5.1327661435108683e-04 to 5.1327661435108781e-04 seconds.
Warning: Simulation tolerance relaxed to achieve convergence from 5.1327661435108781e-04 to 5.1327661435108878e-04 seconds.
Warning: Simulation tolerance relaxed to achieve convergence from 5.1327661435108878e-04 to 5.1327661435108976e-04 seconds.
Warning: Simulation tolerance relaxed to achieve convergence from 5.1327661435108976e-04 to 5.1327661435109073e-04 seconds.
Warning: Simulation tolerance relaxed to achieve convergence from 5.1327661435109269e-04 to 5.1327661435109366e-04 seconds.
Warning: Simulation tolerance relaxed to achieve convergence from 5.1327661435109366e-04 to 5.1327661435109464e-04 seconds.
Warning: Simulation tolerance relaxed to achieve convergence from 5.1327661435109464e-04 to 5.1327661435109561e-04 seconds.
Warning: Simulation tolerance relaxed to achieve convergence from 5.1327661435109561e-04 to 5.1327661435109659e-04 seconds.
Warning: Simulation tolerance relaxed to achieve convergence from 5.1327661435109659e-04 to 5.1327661435109757e-04 seconds.
Warning: Simulation tolerance relaxed to achieve convergence from 5.1327661435109757e-04 to 5.1327661435109854e-04 seconds.
Warning: Simulation tolerance relaxed to achieve convergence from 5.1327661435110342e-04 to 5.1327661435110440e-04 seconds.
Warning: Simulation tolerance relaxed to achieve convergence from 5.1327661435110440e-04 to 5.1327661435110537e-04 seconds.
Warning: Simulation tolerance relaxed to achieve convergence from 5.1327661435110537e-04 
Convergence Failure:  Time step too small; time = 0.000513277, timestep = 1.25e-19: trouble with node "n010"

Simulation Failed: Iteration limit reached

Total elapsed time: 59.525 seconds.

Files loaded:
C:\Users\arnab\Documents\LTspice\Draft4 - Copy.net
C:\Users\arnab\AppData\Local\LTspice\lib\cmp\standard.dio
C:\Users\arnab\AppData\Local\LTspice\lib\cmp\standard.bjt
C:\Users\arnab\AppData\Local\LTspice\lib\cmp\standard.mos
C:\Users\arnab\Documents\LTspice\DC_motor.lib

